/*--------------------------------*- C++ -*----------------------------------*\
| =========                 |                                                 |
| \\      /  F ield         | OpenFOAM: The Open Source CFD Toolbox           |
|  \\    /   O peration     | Version:  1.5                                   |
|   \\  /    A nd           | Web:      http://www.OpenFOAM.org               |
|    \\/     M anipulation  |                                                 |
\*---------------------------------------------------------------------------*/
FoamFile
{
    version     2.0;
    format      ascii;
    class       dictionary;
    object      blockMeshDict;
}
// * * * * * * * * * * * * * * * * * * * * * * * * * * * * * * * * * * * * * //

convertToMeters 1;

vertices        
(
    (  0 -1.83 -2.44 )
    ( 36 -1.83 -2.44 )
    (  0  1.83 -2.44 )
    ( 36  1.83 -2.44 )
                 
    (  0 -1.83 0.2 )
    ( 36 -1.83 0.2 )
    (  0  1.83 0.2 )
    ( 36  1.83 0.2 )                    
);

blocks          
(
    hex (0 1 3 2 4 5 7 6) (120 30 30) simpleGrading (1 1 1)
);

edges           
(
);

patches         
(
    patch inlet
    (
        (0 4 6 2)
    )
    
    wall walls 
    (
        (0 1 5 4)
        (2 3 7 6)
    )
    
    patch outlet
    (
        (1 5 7 3)
    )

    patch atmosphere 
    (
        (4 5 7 6)
    )
    
    wall bottom
    (
        (0 1 3 2)
    )
);

mergePatchPairs
(
);

// ************************************************************************* //
