/*--------------------------------*- C++ -*----------------------------------*\
| =========                 |                                                 |
| \\      /  F ield         | OpenFOAM: The Open Source CFD Toolbox           |
|  \\    /   O peration     | Version:  2.3.x                                 |
|   \\  /    A nd           | Web:      www.OpenFOAM.org                      |
|    \\/     M anipulation  |                                                 |
\*---------------------------------------------------------------------------*/
FoamFile
{
    version     2.0;
    format      ascii;
    class       polyBoundaryMesh;
    location    "constant/polyMesh";
    object      boundary;
}
// * * * * * * * * * * * * * * * * * * * * * * * * * * * * * * * * * * * * * //

5
(
    inlet
    {
        type            patch;
        nFaces          900;
        startFace       315900;
    }
    walls
    {
        type            wall;
        inGroups        1(wall);
        nFaces          7200;
        startFace       316800;
    }
    outlet
    {
        type            patch;
        nFaces          900;
        startFace       324000;
    }
    atmosphere
    {
        type            patch;
        nFaces          3600;
        startFace       324900;
    }
    bottom
    {
        type            wall;
        inGroups        1(wall);
        nFaces          3600;
        startFace       328500;
    }
)

// ************************************************************************* //
